* NGSPICE file created from TPU9012.ext - technology: ihp-sg13g2

* Black-box entry subcircuit for sg13g2_fill_2 abstract view
.subckt sg13g2_fill_2 VDD VSS
.ends

* Black-box entry subcircuit for sg13g2_tiehi abstract view
.subckt sg13g2_tiehi L_HI VDD VSS
.ends

* Black-box entry subcircuit for sg13g2_decap_4 abstract view
.subckt sg13g2_decap_4 VDD VSS
.ends

* Black-box entry subcircuit for sg13g2_nor2_1 abstract view
.subckt sg13g2_nor2_1 Y A B VDD VSS
.ends

* Black-box entry subcircuit for sg13g2_fill_1 abstract view
.subckt sg13g2_fill_1 VDD VSS
.ends

* Black-box entry subcircuit for sg13g2_nand3_1 abstract view
.subckt sg13g2_nand3_1 Y A B C VDD VSS
.ends

* Black-box entry subcircuit for sg13g2_dlygate4sd3_1 abstract view
.subckt sg13g2_dlygate4sd3_1 X A VDD VSS
.ends

* Black-box entry subcircuit for sg13g2_a21oi_1 abstract view
.subckt sg13g2_a21oi_1 Y A1 A2 B1 VDD VSS
.ends

* Black-box entry subcircuit for sg13g2_buf_1 abstract view
.subckt sg13g2_buf_1 X A VDD VSS
.ends

* Black-box entry subcircuit for sg13g2_decap_8 abstract view
.subckt sg13g2_decap_8 VDD VSS
.ends

* Black-box entry subcircuit for sg13g2_inv_1 abstract view
.subckt sg13g2_inv_1 Y A VDD VSS
.ends

* Black-box entry subcircuit for sg13g2_dfrbpq_1 abstract view
.subckt sg13g2_dfrbpq_1 Q CLK D RESET_B VDD VSS
.ends

* Black-box entry subcircuit for sg13g2_o21ai_1 abstract view
.subckt sg13g2_o21ai_1 Y A1 A2 B1 VDD VSS
.ends

* Black-box entry subcircuit for sg13g2_a221oi_1 abstract view
.subckt sg13g2_a221oi_1 Y A1 A2 B1 B2 C1 VDD VSS
.ends

* Black-box entry subcircuit for sg13g2_nor3_1 abstract view
.subckt sg13g2_nor3_1 Y A B C VDD VSS
.ends

* Black-box entry subcircuit for sg13g2_nand3b_1 abstract view
.subckt sg13g2_nand3b_1 Y A_N B C VDD VSS
.ends

* Black-box entry subcircuit for sg13g2_nand4_1 abstract view
.subckt sg13g2_nand4_1 Y A B C D VDD VSS
.ends

* Black-box entry subcircuit for sg13g2_nand2b_1 abstract view
.subckt sg13g2_nand2b_1 Y A_N B VDD VSS
.ends

* Black-box entry subcircuit for sg13g2_xnor2_1 abstract view
.subckt sg13g2_xnor2_1 Y A B VDD VSS
.ends

* Black-box entry subcircuit for sg13g2_a22oi_1 abstract view
.subckt sg13g2_a22oi_1 Y A1 A2 B1 B2 VDD VSS
.ends

* Black-box entry subcircuit for sg13g2_xor2_1 abstract view
.subckt sg13g2_xor2_1 X A B VDD VSS
.ends

* Black-box entry subcircuit for sg13g2_and2_1 abstract view
.subckt sg13g2_and2_1 X A B VDD VSS
.ends

* Black-box entry subcircuit for sg13g2_nand2_1 abstract view
.subckt sg13g2_nand2_1 Y A B VDD VSS
.ends

* Black-box entry subcircuit for sg13g2_nor4_1 abstract view
.subckt sg13g2_nor4_1 Y A B C D VDD VSS
.ends

* Black-box entry subcircuit for sg13g2_IOPadIOVss abstract view
.subckt sg13g2_IOPadIOVss iovdd iovss vdd vss
.ends

* Black-box entry subcircuit for sg13g2_buf_8 abstract view
.subckt sg13g2_buf_8 X A VDD VSS
.ends

* Black-box entry subcircuit for sg13g2_or3_1 abstract view
.subckt sg13g2_or3_1 X A B C VDD VSS
.ends

* Black-box entry subcircuit for sg13g2_buf_16 abstract view
.subckt sg13g2_buf_16 X A VDD VSS
.ends

* Black-box entry subcircuit for sg13g2_antennanp abstract view
.subckt sg13g2_antennanp A VDD VSS
.ends

* Black-box entry subcircuit for bondpad_70x70_novias abstract view
.subckt bondpad_70x70_novias pad
.ends

* Black-box entry subcircuit for sg13g2_or2_1 abstract view
.subckt sg13g2_or2_1 X A B VDD VSS
.ends

* Black-box entry subcircuit for sg13g2_and4_1 abstract view
.subckt sg13g2_and4_1 X A B C D VDD VSS
.ends

* Black-box entry subcircuit for sg13g2_IOPadIn abstract view
.subckt sg13g2_IOPadIn iovdd iovss p2c pad vdd vss
.ends

* Black-box entry subcircuit for sg13g2_nor2b_1 abstract view
.subckt sg13g2_nor2b_1 Y A B_N VDD VSS
.ends

* Black-box entry subcircuit for sg13g2_a21o_1 abstract view
.subckt sg13g2_a21o_1 X A1 A2 B1 VDD VSS
.ends

* Black-box entry subcircuit for sg13g2_and3_1 abstract view
.subckt sg13g2_and3_1 X A B C VDD VSS
.ends

* Black-box entry subcircuit for sg13g2_IOPadOut30mA abstract view
.subckt sg13g2_IOPadOut30mA c2p iovdd iovss pad vdd vss
.ends

* Black-box entry subcircuit for sg13g2_mux2_1 abstract view
.subckt sg13g2_mux2_1 X A0 A1 S VDD VSS
.ends

* Black-box entry subcircuit for sg13g2_or4_1 abstract view
.subckt sg13g2_or4_1 X A B C D VDD VSS
.ends

* Black-box entry subcircuit for sg13g2_Corner abstract view
.subckt sg13g2_Corner iovdd iovss vdd vss
.ends

* Black-box entry subcircuit for sg13g2_inv_4 abstract view
.subckt sg13g2_inv_4 Y A VDD VSS
.ends

* Black-box entry subcircuit for sg13g2_inv_2 abstract view
.subckt sg13g2_inv_2 Y A VDD VSS
.ends

* Black-box entry subcircuit for sg13g2_IOPadVdd abstract view
.subckt sg13g2_IOPadVdd iovdd iovss vdd vss
.ends

* Black-box entry subcircuit for sg13g2_IOPadIOVdd abstract view
.subckt sg13g2_IOPadIOVdd iovdd iovss vdd vss
.ends

* Black-box entry subcircuit for sg13g2_tielo abstract view
.subckt sg13g2_tielo L_LO VDD VSS
.ends

* Black-box entry subcircuit for sg13g2_IOPadVss abstract view
.subckt sg13g2_IOPadVss iovdd iovss vdd vss
.ends

* Black-box entry subcircuit for logo_nebula abstract view
.subckt logo_nebula
.ends

.subckt TPU9012 IOVDD IOVSS VDD VSS alive_PAD clk_PAD data_in_PAD[0] data_in_PAD[1]
+ data_in_PAD[2] data_in_PAD[3] data_in_PAD[4] data_in_PAD[5] data_in_PAD[6] data_in_PAD[7]
+ kernel_we_PAD result_PAD[0] result_PAD[1] result_PAD[2] result_PAD[3] result_PAD[4]
+ result_PAD[5] result_PAD[6] result_PAD[7] rst_n_PAD
XFILLER_95_851 VDD VSS sg13g2_fill_2
Xi_chip_core_i_shift_window_line_buffer_L0__1764__1592 i_chip_core_i_shift_window_line_buffer_L0__1764_/RESET_B
+ VDD VSS sg13g2_tiehi
XFILLER_95_895 VDD VSS sg13g2_fill_2
XFILLER_67_575 VDD VSS sg13g2_fill_2
XFILLER_67_586 VDD VSS sg13g2_decap_4
Xi_chip_core_i_shift_window_window_mask__3078_ i_chip_core_i_shift_window_window_mask__3130_/D
+ i_chip_core_i_shift_window_window_mask__3079_/A i_chip_core_i_shift_window_window_mask__3079_/B
+ VDD VSS sg13g2_nor2_1
XFILLER_94_361 VDD VSS sg13g2_fill_1
XFILLER_55_715 VDD VSS sg13g2_fill_1
Xi_chip_core_i_shift_window_window_mask__2029_ i_chip_core_i_shift_window_window_mask__2089_/A
+ i_chip_core_fanout840/X i_chip_core_i_shift_window_window_mask__2029_/B i_chip_core_i_shift_window_window_mask__2029_/C
+ VDD VSS sg13g2_nand3_1
XFILLER_82_534 VDD VSS sg13g2_decap_4
XFILLER_55_737 VDD VSS sg13g2_decap_4
XFILLER_70_707 VDD VSS sg13g2_fill_1
Xi_chip_core_i_shift_window_line_buffer_L1_hold4020 i_chip_core_i_shift_window_line_buffer_L1__2310_/D
+ i_chip_core_i_shift_window_line_buffer_L1__2056_/Y VDD VSS sg13g2_dlygate4sd3_1
Xi_chip_core_i_shift_window_line_buffer_L1__1512_ i_chip_core_i_shift_window_line_buffer_L1__1512_/Y
+ i_chip_core_i_shift_window_line_buffer_L1__1536_/A1 i_chip_core_i_shift_window_line_buffer_hold3726/A
+ i_chip_core_i_shift_window_line_buffer_fanout405/X VDD VSS sg13g2_a21oi_1
Xi_chip_core_i_shift_window_line_buffer_L0__1666__1617 i_chip_core_i_shift_window_line_buffer_L0__1666_/RESET_B
+ VDD VSS sg13g2_tiehi
Xi_chip_core_i_shift_window_line_buffer_fanout4 i_chip_core_i_shift_window_line_buffer_fanout4/X
+ i_chip_core_i_shift_window_line_buffer_fanout5/X VDD VSS sg13g2_buf_1
XFILLER_22_122 VDD VSS sg13g2_decap_8
XFILLER_22_111 VDD VSS sg13g2_decap_8
Xi_chip_core_i_shift_window_line_buffer_L1__1443_ i_chip_core_i_shift_window_line_buffer_L1__1443_/Y
+ i_chip_core_i_shift_window_line_buffer_fanout487/X i_chip_core_i_shift_window_line_buffer_hold2789/X
+ i_chip_core_i_shift_window_line_buffer_L1__1444_/A1 VDD VSS sg13g2_a21oi_1
Xi_chip_core_i_shift_window_line_buffer_L1_hold3330 i_chip_core_i_shift_window_line_buffer_L1__2252_/D
+ i_chip_core_i_shift_window_line_buffer_L1__1882_/Y VDD VSS sg13g2_dlygate4sd3_1
XFILLER_22_166 VDD VSS sg13g2_fill_1
XFILLER_109_706 VDD VSS sg13g2_decap_8
Xi_chip_core_i_shift_window_line_buffer_L1__1374_ i_chip_core_i_shift_window_line_buffer_L1__1374_/Y
+ i_chip_core_i_shift_window_line_buffer_hold3360/X VDD VSS sg13g2_inv_1
XFILLER_109_728 VDD VSS sg13g2_decap_8
Xi_chip_core_i_shift_window_line_buffer_L1__2165__1970 i_chip_core_i_shift_window_line_buffer_L1__2165_/RESET_B
+ VDD VSS sg13g2_tiehi
Xi_chip_core_hold3877 i_chip_core_hold3877/X i_chip_core_hold3877/A VDD VSS sg13g2_dlygate4sd3_1
Xi_chip_core_i_shift_window_line_buffer_L3_fanout347 i_chip_core_i_shift_window_line_buffer_L3__2086_/A1
+ i_chip_core_i_shift_window_line_buffer_fanout349/X VDD VSS sg13g2_buf_1
XFILLER_7_7 VDD VSS sg13g2_decap_8
XFILLER_120_915 VDD VSS sg13g2_decap_8
XFILLER_116_293 VDD VSS sg13g2_fill_1
Xi_chip_core_kernel__555_ i_chip_core_hold3468/A clkbuf_leaf_53_clk_p2c/X i_chip_core_kernel__555_/D
+ i_chip_core_kernel__555_/RESET_B VDD VSS sg13g2_dfrbpq_1
XFILLER_104_455 VDD VSS sg13g2_fill_2
XFILLER_2_549 VDD VSS sg13g2_decap_8
Xi_chip_core_kernel__486_ i_chip_core_kernel__486_/Y i_chip_core_kernel__575_/Q i_chip_core_kernel__503_/A2
+ i_chip_core_kernel__502_/B1 VDD VSS sg13g2_o21ai_1
Xi_chip_core_kernel__538__2513 i_chip_core_kernel__538_/RESET_B VDD VSS sg13g2_tiehi
XFILLER_58_531 VDD VSS sg13g2_decap_4
Xi_chip_core_i_shift_window_line_buffer_L2__1621_ i_chip_core_i_shift_window_line_buffer_L2__1621_/Y
+ i_chip_core_i_shift_window_line_buffer_L2__1645_/A1 i_chip_core_i_shift_window_line_buffer_L2__1255_/Y
+ i_chip_core_i_shift_window_line_buffer_L2__1619_/Y i_chip_core_i_shift_window_line_buffer_L2__1620_/Y
+ i_chip_core_i_shift_window_line_buffer_L2__1744_/C1 VDD VSS sg13g2_a221oi_1
Xi_chip_core_i_shift_window_line_buffer_L3__2105__2494 i_chip_core_i_shift_window_line_buffer_L3__2105_/RESET_B
+ VDD VSS sg13g2_tiehi
XFILLER_46_715 VDD VSS sg13g2_fill_2
XFILLER_93_47 VDD VSS sg13g2_fill_2
XFILLER_45_203 VDD VSS sg13g2_decap_4
XFILLER_45_225 VDD VSS sg13g2_decap_4
XFILLER_61_707 VDD VSS sg13g2_decap_8
XFILLER_61_718 VDD VSS sg13g2_fill_1
Xi_chip_core_i_shift_window_line_buffer_L2__1552_ i_chip_core_i_shift_window_line_buffer_L2__1552_/Y
+ i_chip_core_i_shift_window_line_buffer_fanout201/X i_chip_core_i_shift_window_line_buffer_L2__1232_/Y
+ i_chip_core_i_shift_window_line_buffer_L2__1550_/Y i_chip_core_i_shift_window_line_buffer_L2__1551_/Y
+ i_chip_core_i_shift_window_line_buffer_L2__1672_/C1 VDD VSS sg13g2_a221oi_1
Xi_chip_core_i_shift_window_line_buffer_L3_hold3265 i_chip_core_i_shift_window_line_buffer_L3__2268_/D
+ i_chip_core_i_shift_window_line_buffer_L3__1930_/Y VDD VSS sg13g2_dlygate4sd3_1
XFILLER_27_962 VDD VSS sg13g2_fill_1
Xi_chip_core_i_shift_window_line_buffer_L3__2284__2315 i_chip_core_i_shift_window_line_buffer_L3__2284_/RESET_B
+ VDD VSS sg13g2_tiehi
XFILLER_42_932 VDD VSS sg13g2_decap_8
XFILLER_54_792 VDD VSS sg13g2_fill_2
Xi_chip_core_i_shift_window_line_buffer_L2__1483_ i_chip_core_i_shift_window_line_buffer_L2__1483_/Y
+ i_chip_core_i_shift_window_line_buffer_fanout301/X i_chip_core_i_shift_window_line_buffer_L2__1209_/Y
+ i_chip_core_i_shift_window_line_buffer_L2__1481_/Y i_chip_core_i_shift_window_line_buffer_L2__1482_/Y
+ i_chip_core_i_shift_window_line_buffer_L2__2083_/C1 VDD VSS sg13g2_a221oi_1
XFILLER_26_74 VDD VSS sg13g2_fill_1
XFILLER_60_239 VDD VSS sg13g2_decap_8
Xi_chip_core_i_shift_window_line_buffer_L2__2104_ i_chip_core_i_shift_window_line_buffer_hold3037/A
+ clkbuf_leaf_77_clk_p2c/X i_chip_core_i_shift_window_line_buffer_L2__2104_/D i_chip_core_i_shift_window_line_buffer_L2__2104_/RESET_B
+ VDD VSS sg13g2_dfrbpq_1
Xi_chip_core_i_shift_window_window_mask__2380_ i_chip_core_i_shift_window_window_mask__2380_/Y
+ i_chip_core_i_shift_window_window_mask__2424_/A i_chip_core_i_shift_window_window_mask__2380_/B
+ i_chip_core_i_shift_window_window_mask__2380_/C VDD VSS sg13g2_nor3_1
Xi_chip_core_i_shift_window_line_buffer_L2__2035_ i_chip_core_i_shift_window_line_buffer_L2__2303_/D
+ i_chip_core_i_shift_window_line_buffer_L2__1161_/Y i_chip_core_i_shift_window_line_buffer_fanout305/X
+ i_chip_core_i_shift_window_line_buffer_L2__2033_/Y i_chip_core_i_shift_window_line_buffer_L2__2034_/Y
+ i_chip_core_i_shift_window_line_buffer_L2__2083_/C1 VDD VSS sg13g2_a221oi_1
XFILLER_10_895 VDD VSS sg13g2_decap_4
Xi_chip_core_i_shift_window_line_buffer_L0__1050_ i_chip_core_i_shift_window_line_buffer_L0__1050_/Y
+ i_chip_core_i_shift_window_line_buffer_L0__1050_/A VDD VSS sg13g2_inv_1
XFILLER_5_332 VDD VSS sg13g2_decap_4
Xi_chip_core_i_shift_window_window_mask_sum_tree_genblk1.gen_recurse.adder1__81_ i_chip_core_i_shift_window_window_mask_sum_tree_genblk1.gen_recurse.adder1__81_/Y
+ i_chip_core_i_shift_window_window_mask_sum_tree_genblk1.gen_recurse.adder1__84_/B
+ i_chip_core_i_shift_window_window_mask_sum_tree_genblk1.gen_recurse.adder1__81_/B
+ i_chip_core_i_shift_window_window_mask_sum_tree_genblk1.gen_recurse.adder1__81_/C
+ VDD VSS sg13g2_nand3b_1
XFILLER_107_293 VDD VSS sg13g2_fill_1
XFILLER_110_414 VDD VSS sg13g2_fill_2
XFILLER_110_403 VDD VSS sg13g2_decap_8
XFILLER_122_274 VDD VSS sg13g2_decap_8
Xi_chip_core_i_shift_window_window_mask__3001_ i_chip_core_i_shift_window_window_mask__3006_/B
+ i_chip_core_i_shift_window_window_mask__3003_/A i_chip_core_i_shift_window_window_mask__3003_/B
+ i_chip_core_i_shift_window_window_mask__3002_/C i_chip_core_i_shift_window_window_mask__3002_/D
+ VDD VSS sg13g2_nand4_1
Xi_chip_core_i_shift_window_line_buffer_L3__1730_ i_chip_core_i_shift_window_line_buffer_L3__1730_/Y
+ i_chip_core_i_shift_window_line_buffer_fanout460/X i_chip_core_i_shift_window_line_buffer_L3__1730_/B
+ VDD VSS sg13g2_nand2b_1
Xi_chip_core_i_shift_window_line_buffer_fanout441 i_chip_core_i_shift_window_line_buffer_fanout441/X
+ i_chip_core_i_shift_window_line_buffer_fanout443/X VDD VSS sg13g2_buf_1
XFILLER_122_296 VDD VSS sg13g2_decap_8
Xi_chip_core_i_shift_window_line_buffer_fanout430 i_chip_core_i_shift_window_line_buffer_fanout430/X
+ i_chip_core_i_shift_window_line_buffer_fanout438/X VDD VSS sg13g2_buf_1
XFILLER_96_648 VDD VSS sg13g2_decap_8
XFILLER_49_542 VDD VSS sg13g2_decap_8
XFILLER_77_862 VDD VSS sg13g2_decap_8
XFILLER_77_884 VDD VSS sg13g2_fill_2
XFILLER_83_309 VDD VSS sg13g2_fill_1
XFILLER_49_575 VDD VSS sg13g2_decap_4
Xi_chip_core_i_shift_window_line_buffer_L0__0903_ i_chip_core_i_shift_window_line_buffer_L0__0903_/Y
+ i_chip_core_i_shift_window_line_buffer_hold2609/X VDD VSS sg13g2_inv_1
Xi_chip_core_i_shift_window_line_buffer_fanout474 i_chip_core_i_shift_window_line_buffer_fanout474/X
+ i_chip_core_i_shift_window_line_buffer_fanout476/X VDD VSS sg13g2_buf_1
Xi_chip_core_i_shift_window_line_buffer_fanout463 i_chip_core_i_shift_window_line_buffer_fanout463/X
+ i_chip_core_i_shift_window_line_buffer_fanout472/X VDD VSS sg13g2_buf_1
Xi_chip_core_i_shift_window_line_buffer_L3__1661_ i_chip_core_i_shift_window_line_buffer_L3__1661_/Y
+ i_chip_core_i_shift_window_line_buffer_fanout493/X i_chip_core_i_shift_window_line_buffer_L3__1661_/B
+ VDD VSS sg13g2_nand2b_1
Xi_chip_core_i_shift_window_line_buffer_fanout485 i_chip_core_i_shift_window_line_buffer_fanout485/X
+ i_chip_core_i_shift_window_line_buffer_fanout487/X VDD VSS sg13g2_buf_1
XFILLER_92_832 VDD VSS sg13g2_fill_1
Xi_chip_core_i_shift_window_line_buffer_L3__1592_ i_chip_core_i_shift_window_line_buffer_L3__1592_/Y
+ i_chip_core_i_shift_window_line_buffer_fanout591/X i_chip_core_i_shift_window_line_buffer_L3__1592_/B
+ VDD VSS sg13g2_nand2b_1
Xi_chip_core_i_shift_window_line_buffer_fanout496 i_chip_core_i_shift_window_line_buffer_fanout496/X
+ i_chip_core_i_shift_window_line_buffer_fanout499/X VDD VSS sg13g2_buf_1
Xi_chip_core_i_shift_window_line_buffer_L2__1819_ i_chip_core_i_shift_window_line_buffer_L2__1819_/Y
+ i_chip_core_i_shift_window_line_buffer_L2__1819_/A1 i_chip_core_i_shift_window_line_buffer_L2__1321_/Y
+ i_chip_core_i_shift_window_line_buffer_L2__1817_/Y i_chip_core_i_shift_window_line_buffer_L2__1818_/Y
+ i_chip_core_i_shift_window_line_buffer_L2__1819_/C1 VDD VSS sg13g2_a221oi_1
XFILLER_92_854 VDD VSS sg13g2_fill_2
XFILLER_64_578 VDD VSS sg13g2_decap_8
Xi_chip_core_i_shift_window_line_buffer_L1__2243__1892 i_chip_core_i_shift_window_line_buffer_L1__2243_/RESET_B
+ VDD VSS sg13g2_tiehi
Xi_chip_core_i_shift_window_window_mask__3903_ i_chip_core_i_shift_window_window_mask__3904_/B
+ i_chip_core_i_shift_window_window_mask__3903_/A i_chip_core_i_shift_window_window_mask__3903_/B
+ VDD VSS sg13g2_xnor2_1
XFILLER_91_375 VDD VSS sg13g2_decap_8
Xi_chip_core_i_shift_window_window_mask__3834_ i_chip_core_i_shift_window_window_mask__3840_/B
+ i_chip_core_i_shift_window_window_mask__3833_/B i_chip_core_fanout1012/X i_chip_core_fanout1010/X
+ i_chip_core_i_shift_window_window_mask__3856_/A VDD VSS sg13g2_a22oi_1
Xi_chip_core_i_shift_window_line_buffer_L3__2213_ i_chip_core_i_shift_window_line_buffer_L3__2213_/Q
+ clkbuf_leaf_35_clk_p2c/X i_chip_core_i_shift_window_line_buffer_L3__2213_/D i_chip_core_i_shift_window_line_buffer_L3__2213_/RESET_B
+ VDD VSS sg13g2_dfrbpq_1
Xi_chip_core_i_shift_window_window_mask__3765_ i_chip_core_i_shift_window_window_mask__3767_/D
+ i_chip_core_i_shift_window_window_mask__3624_/Y i_chip_core_i_shift_window_window_mask__3628_/Y
+ i_chip_core_i_shift_window_window_mask__3687_/Y VDD VSS sg13g2_o21ai_1
Xi_chip_core_i_shift_window_window_mask__2716_ i_chip_core_i_shift_window_window_mask__2716_/Y
+ i_chip_core_i_shift_window_window_mask__2716_/A i_chip_core_i_shift_window_window_mask__2716_/B
+ i_chip_core_i_shift_window_window_mask__2716_/C VDD VSS sg13g2_nand3_1
Xi_chip_core_i_shift_window_line_buffer_L3__2144_ i_chip_core_i_shift_window_line_buffer_L3__2144_/Q
+ clkbuf_leaf_70_clk_p2c/X i_chip_core_i_shift_window_line_buffer_L3__2144_/D i_chip_core_i_shift_window_line_buffer_L3__2144_/RESET_B
+ VDD VSS sg13g2_dfrbpq_1
XFILLER_20_648 VDD VSS sg13g2_decap_8
Xi_chip_core_i_shift_window_window_mask__3696_ i_chip_core_i_shift_window_window_mask__3701_/C
+ i_chip_core_i_shift_window_window_mask__3697_/D i_chip_core_i_shift_window_window_mask__3697_/A
+ i_chip_core_i_shift_window_window_mask__3698_/B VDD VSS sg13g2_nand3_1
Xi_chip_core_i_shift_window_window_mask__2647_ i_chip_core_i_shift_window_window_mask__2647_/X
+ i_chip_core_i_shift_window_window_mask__2662_/C i_chip_core_i_shift_window_window_mask__2662_/B
+ VDD VSS sg13g2_xor2_1
Xi_chip_core_i_shift_window_line_buffer_L3__2075_ i_chip_core_i_shift_window_line_buffer_L3__2075_/Y
+ i_chip_core_i_shift_window_line_buffer_fanout795/X i_chip_core_i_shift_window_line_buffer_L3__2075_/B
+ VDD VSS sg13g2_nand2b_1
XFILLER_66_0 VDD VSS sg13g2_decap_4
Xi_chip_core_i_shift_window_line_buffer_L0__1317_ i_chip_core_i_shift_window_line_buffer_L0__1666_/D
+ i_chip_core_i_shift_window_line_buffer_L0__1317_/A1 i_chip_core_i_shift_window_line_buffer_L0__1021_/Y
+ i_chip_core_i_shift_window_line_buffer_L0__1316_/Y VDD VSS sg13g2_a21oi_1
Xi_chip_core_i_shift_window_window_mask__2578_ i_chip_core_i_shift_window_window_mask__2578_/Y
+ i_chip_core_i_shift_window_window_mask__2578_/A i_chip_core_i_shift_window_window_mask__2578_/B
+ i_chip_core_i_shift_window_window_mask__2578_/C VDD VSS sg13g2_nand3_1
Xi_chip_core_i_shift_window_line_buffer_L0__1248_ i_chip_core_i_shift_window_line_buffer_L0__1248_/Y
+ i_chip_core_i_shift_window_line_buffer_fanout109/X i_chip_core_i_shift_window_line_buffer_hold3276/X
+ i_chip_core_i_shift_window_line_buffer_L0__1520_/B1 VDD VSS sg13g2_o21ai_1
XFILLER_102_904 VDD VSS sg13g2_decap_8
Xi_chip_core_i_shift_window_window_mask_sum_tree__95_ i_chip_core_i_shift_window_window_mask_sum_tree__96_/B
+ i_chip_core_i_shift_window_window_mask_sum_tree__77_/Y i_chip_core_i_shift_window_window_mask_sum_tree__88_/Y
+ i_chip_core_i_shift_window_window_mask_sum_tree__93_/Y VDD VSS sg13g2_a21oi_1
Xi_chip_core_i_shift_window_line_buffer_L0__1179_ i_chip_core_i_shift_window_line_buffer_L0__1597_/D
+ i_chip_core_i_shift_window_line_buffer_fanout220/X i_chip_core_i_shift_window_line_buffer_L0__1090_/Y
+ i_chip_core_i_shift_window_line_buffer_L0__1178_/Y VDD VSS sg13g2_a21oi_1
Xi_chip_core_i_shift_window_line_buffer_L1_fanout1417 i_chip_core_i_shift_window_line_buffer_L1__1720_/C1
+ i_chip_core_i_shift_window_line_buffer_L1_fanout1427/X VDD VSS sg13g2_buf_1
Xi_chip_core_i_shift_window_line_buffer_L1_fanout1406 i_chip_core_i_shift_window_line_buffer_L1_fanout1406/X
+ i_chip_core_i_shift_window_line_buffer_L1_fanout1407/X VDD VSS sg13g2_buf_1
Xi_chip_core_i_shift_window_line_buffer_L1_fanout1428 i_chip_core_i_shift_window_line_buffer_L1__1555_/C1
+ i_chip_core_i_shift_window_line_buffer_L1__2059_/C1 VDD VSS sg13g2_buf_1
XFILLER_114_786 VDD VSS sg13g2_decap_8
XFILLER_102_915 VDD VSS sg13g2_fill_2
XFILLER_99_486 VDD VSS sg13g2_fill_2
XFILLER_99_497 VDD VSS sg13g2_fill_2
Xi_chip_core_i_shift_window_line_buffer_L3__1928_ i_chip_core_i_shift_window_line_buffer_L3__1928_/Y
+ i_chip_core_i_shift_window_line_buffer_fanout640/X i_chip_core_i_shift_window_line_buffer_L3__1928_/B
+ VDD VSS sg13g2_nand2b_1
XFILLER_86_114 VDD VSS sg13g2_fill_1
Xi_chip_core_i_shift_window_line_buffer_L1__1992_ i_chip_core_i_shift_window_line_buffer_L1__1992_/Y
+ i_chip_core_i_shift_window_line_buffer_L1__1992_/A1 i_chip_core_i_shift_window_line_buffer_hold2718/X
+ i_chip_core_i_shift_window_line_buffer_fanout388/X VDD VSS sg13g2_a21oi_1
Xi_chip_core_kernel__340_ i_chip_core_kernel__340_/Y i_chip_core_fanout967/X VDD VSS
+ sg13g2_inv_1
Xi_chip_core_i_shift_window_line_buffer_L1_fanout1439 i_chip_core_i_shift_window_line_buffer_L1__2017_/C1
+ i_chip_core_i_shift_window_line_buffer_L1_fanout1442/X VDD VSS sg13g2_buf_1
XFILLER_102_948 VDD VSS sg13g2_decap_8
XFILLER_68_840 VDD VSS sg13g2_decap_8
XFILLER_86_136 VDD VSS sg13g2_fill_2
XFILLER_110_970 VDD VSS sg13g2_decap_8
Xi_chip_core_i_shift_window_line_buffer_L3__1859_ i_chip_core_i_shift_window_line_buffer_L3__1859_/Y
+ i_chip_core_i_shift_window_line_buffer_fanout685/X i_chip_core_i_shift_window_line_buffer_L3__1859_/B
+ VDD VSS sg13g2_nand2b_1
XFILLER_95_670 VDD VSS sg13g2_decap_8
XFILLER_74_309 VDD VSS sg13g2_decap_8
XFILLER_83_876 VDD VSS sg13g2_fill_1
XFILLER_27_236 VDD VSS sg13g2_fill_2
XFILLER_55_589 VDD VSS sg13g2_fill_2
Xi_chip_core_i_shift_window_line_buffer_L1_fanout780 i_chip_core_i_shift_window_line_buffer_L1__1536_/A1
+ i_chip_core_i_shift_window_line_buffer_fanout787/X VDD VSS sg13g2_buf_1
XFILLER_23_420 VDD VSS sg13g2_fill_1
XFILLER_23_475 VDD VSS sg13g2_fill_2
Xi_chip_core_i_shift_window_line_buffer_L1__1426_ i_chip_core_i_shift_window_line_buffer_L1__2100_/D
+ i_chip_core_i_shift_window_line_buffer_fanout222/X i_chip_core_i_shift_window_line_buffer_L1__1190_/Y
+ i_chip_core_i_shift_window_line_buffer_L1__1424_/Y i_chip_core_i_shift_window_line_buffer_L1__1425_/Y
+ i_chip_core_i_shift_window_line_buffer_L1__2074_/C1 VDD VSS sg13g2_a221oi_1
XFILLER_51_795 VDD VSS sg13g2_decap_8
Xi_chip_core_i_shift_window_line_buffer_L1_hold3160 i_chip_core_i_shift_window_line_buffer_L1__2120_/D
+ i_chip_core_i_shift_window_line_buffer_L1__1486_/Y VDD VSS sg13g2_dlygate4sd3_1
XFILLER_10_114 VDD VSS sg13g2_fill_2
XFILLER_11_626 VDD VSS sg13g2_fill_1
XFILLER_23_486 VDD VSS sg13g2_decap_8
XFILLER_50_294 VDD VSS sg13g2_decap_4
Xi_chip_core_i_shift_window_line_buffer_L1__1357_ i_chip_core_i_shift_window_line_buffer_L1__1357_/Y
+ i_chip_core_i_shift_window_line_buffer_L1__1357_/A VDD VSS sg13g2_inv_1
Xi_chip_core_i_shift_window_line_buffer_L1_hold3193 i_chip_core_i_shift_window_line_buffer_L1__2175_/D
+ i_chip_core_i_shift_window_line_buffer_L1__1651_/Y VDD VSS sg13g2_dlygate4sd3_1
XFILLER_11_659 VDD VSS sg13g2_fill_1
Xi_chip_core_i_shift_window_line_buffer_L1__1288_ i_chip_core_i_shift_window_line_buffer_L1__1288_/Y
+ i_chip_core_i_shift_window_line_buffer_hold3646/X VDD VSS sg13g2_inv_1
XFILLER_117_580 VDD VSS sg13g2_decap_8
XFILLER_2_302 VDD VSS sg13g2_decap_8
XFILLER_105_731 VDD VSS sg13g2_decap_8
XFILLER_105_742 VDD VSS sg13g2_fill_2
Xi_chip_core_i_shift_window_line_buffer_L3_fanout155 i_chip_core_i_shift_window_line_buffer_L3__1738_/A1
+ i_chip_core_i_shift_window_line_buffer_L3__1785_/B1 VDD VSS sg13g2_buf_1
XFILLER_3_858 VDD VSS sg13g2_fill_1
XFILLER_2_324 VDD VSS sg13g2_decap_8
Xi_chip_core_kernel__538_ i_chip_core_hold3991/A clkbuf_leaf_58_clk_p2c/X i_chip_core_kernel__538_/D
+ i_chip_core_kernel__538_/RESET_B VDD VSS sg13g2_dfrbpq_1
XFILLER_78_648 VDD VSS sg13g2_decap_8
XFILLER_77_136 VDD VSS sg13g2_fill_1
Xi_chip_core_kernel__469_ i_chip_core_kernel__558_/D i_chip_core_kernel__495_/A1 i_chip_core_kernel__305_/Y
+ i_chip_core_kernel__468_/Y VDD VSS sg13g2_a21oi_1
XFILLER_92_106 VDD VSS sg13g2_decap_8
XFILLER_19_704 VDD VSS sg13g2_decap_8
XFILLER_46_501 VDD VSS sg13g2_decap_8
XFILLER_86_670 VDD VSS sg13g2_fill_1
XFILLER_46_534 VDD VSS sg13g2_fill_1
XFILLER_18_203 VDD VSS sg13g2_fill_2
Xi_chip_core_i_shift_window_line_buffer_L2__1604_ i_chip_core_i_shift_window_line_buffer_L2__1604_/Y
+ i_chip_core_i_shift_window_line_buffer_fanout746/X i_chip_core_i_shift_window_line_buffer_L2__1604_/B
+ VDD VSS sg13g2_nand2b_1
XFILLER_37_84 VDD VSS sg13g2_fill_1
Xi_chip_core_i_shift_window_line_buffer_L2__1535_ i_chip_core_i_shift_window_line_buffer_L2__1535_/Y
+ i_chip_core_i_shift_window_line_buffer_L2__1584_/A1 i_chip_core_i_shift_window_line_buffer_L2__1535_/B
+ VDD VSS sg13g2_nand2b_1
XFILLER_61_559 VDD VSS sg13g2_decap_8
XFILLER_73_397 VDD VSS sg13g2_fill_1
Xi_chip_core_i_shift_window_line_buffer_L1__2120__2015 i_chip_core_i_shift_window_line_buffer_L1__2120_/RESET_B
+ VDD VSS sg13g2_tiehi
XFILLER_30_902 VDD VSS sg13g2_fill_1
Xi_chip_core_i_shift_window_line_buffer_L2__1466_ i_chip_core_i_shift_window_line_buffer_L2__1466_/Y
+ i_chip_core_i_shift_window_line_buffer_fanout485/X i_chip_core_i_shift_window_line_buffer_L2__1466_/B
+ VDD VSS sg13g2_nand2b_1
Xi_chip_core_i_shift_window_window_mask__3550_ i_chip_core_i_shift_window_window_mask__3550_/X
+ i_chip_core_i_shift_window_window_mask__3550_/A i_chip_core_i_shift_window_window_mask__3550_/B
+ VDD VSS sg13g2_and2_1
XFILLER_14_475 VDD VSS sg13g2_decap_8
Xi_chip_core_i_shift_window_line_buffer_L2__1397_ i_chip_core_i_shift_window_line_buffer_L2__1397_/Y
+ i_chip_core_i_shift_window_line_buffer_fanout560/X i_chip_core_i_shift_window_line_buffer_hold2980/X
+ VDD VSS sg13g2_nand2b_1
Xi_chip_core_i_shift_window_window_mask__2501_ i_chip_core_i_shift_window_window_mask__2501_/Y
+ i_chip_core_i_shift_window_window_mask__2463_/A i_chip_core_i_shift_window_window_mask__2463_/B
+ i_chip_core_i_shift_window_window_mask__2502_/B VDD VSS sg13g2_o21ai_1
Xi_chip_core_i_shift_window_window_mask__3481_ i_chip_core_i_shift_window_window_mask__3482_/B
+ i_chip_core_fanout976/X i_chip_core_fanout972/X i_chip_core_i_shift_window_fanout1378/X
+ i_chip_core_i_shift_window_window_mask__3481_/D VDD VSS sg13g2_nand4_1
Xi_chip_core_i_shift_window_window_mask__2432_ i_chip_core_i_shift_window_window_mask__2433_/B
+ i_chip_core_fanout888/X i_chip_core_fanout883/X i_chip_core_i_shift_window_window_mask__2432_/C
+ i_chip_core_i_shift_window_window_mask__2547_/A VDD VSS sg13g2_nand4_1
Xi_chip_core_i_shift_window_line_buffer_L0__1102_ i_chip_core_i_shift_window_line_buffer_L0__1102_/Y
+ i_chip_core_i_shift_window_line_buffer_L0__1102_/A VDD VSS sg13g2_inv_1
Xi_chip_core_i_shift_window_window_mask__2363_ i_chip_core_i_shift_window_window_mask__2366_/B
+ i_chip_core_i_shift_window_window_mask__2412_/A i_chip_core_i_shift_window_window_mask__2412_/B
+ i_chip_core_i_shift_window_window_mask__2415_/A i_chip_core_i_shift_window_window_mask__2416_/C
+ VDD VSS sg13g2_nand4_1
XFILLER_108_580 VDD VSS sg13g2_fill_2
Xi_chip_core_i_shift_window_line_buffer_L2_hold3820 i_chip_core_i_shift_window_line_buffer_L2__2212_/D
+ i_chip_core_i_shift_window_line_buffer_L2__1762_/Y VDD VSS sg13g2_dlygate4sd3_1
Xi_chip_core_i_shift_window_line_buffer_L0__1650__1649 i_chip_core_i_shift_window_line_buffer_L0__1650_/RESET_B
+ VDD VSS sg13g2_tiehi
Xi_chip_core_i_shift_window_line_buffer_L2__2018_ i_chip_core_i_shift_window_line_buffer_L2__2018_/Y
+ i_chip_core_i_shift_window_line_buffer_fanout515/X i_chip_core_i_shift_window_fanout1189/X
+ VDD VSS sg13g2_nand2b_1
Xi_chip_core_i_shift_window_line_buffer_L0__1033_ i_chip_core_i_shift_window_line_buffer_L0__1033_/Y
+ i_chip_core_i_shift_window_line_buffer_hold3351/X VDD VSS sg13g2_inv_1
Xi_chip_core_i_shift_window_line_buffer_L2_hold3853 i_chip_core_i_shift_window_line_buffer_L2__2198_/D
+ i_chip_core_i_shift_window_line_buffer_L2__1720_/Y VDD VSS sg13g2_dlygate4sd3_1
XFILLER_108_591 VDD VSS sg13g2_fill_2
Xi_chip_core_i_shift_window_window_mask_sum_tree_genblk1.gen_recurse.adder1__64_ i_chip_core_i_shift_window_window_mask_sum_tree_genblk1.gen_recurse.adder1__81_/C
+ i_chip_core_i_shift_window_window_mask_sum_tree_genblk1.gen_recurse.adder1__65_/A
+ i_chip_core_i_shift_window_window_mask_sum_tree_genblk1.gen_recurse.adder1__65_/B
+ VDD VSS sg13g2_xor2_1
Xi_chip_core_i_shift_window_window_mask__2294_ i_chip_core_i_shift_window_window_mask__2304_/A
+ i_chip_core_fanout869/X i_chip_core_i_shift_window_window_mask__2332_/B VDD VSS
+ sg13g2_nand2_1
XFILLER_111_723 VDD VSS sg13g2_decap_8
XFILLER_96_412 VDD VSS sg13g2_fill_1
Xi_chip_core_i_shift_window_line_buffer_L2_hold3875 i_chip_core_i_shift_window_line_buffer_L2__1904_/B
+ i_chip_core_i_shift_window_line_buffer_L3__1366_/A VDD VSS sg13g2_dlygate4sd3_1
Xi_chip_core_i_shift_window_line_buffer_L2_hold3897 i_chip_core_i_shift_window_line_buffer_L2__2060_/B
+ i_chip_core_i_shift_window_line_buffer_L3__1186_/A VDD VSS sg13g2_dlygate4sd3_1
Xi_chip_core_i_shift_window_line_buffer_L2_hold3886 i_chip_core_i_shift_window_line_buffer_L2__2203_/D
+ i_chip_core_i_shift_window_line_buffer_L2__1735_/Y VDD VSS sg13g2_dlygate4sd3_1
XFILLER_111_734 VDD VSS sg13g2_fill_1
XFILLER_111_745 VDD VSS sg13g2_decap_8
Xi_chip_core_i_shift_window_line_buffer_fanout260 i_chip_core_i_shift_window_line_buffer_fanout260/X
+ i_chip_core_i_shift_window_line_buffer_fanout262/X VDD VSS sg13g2_buf_1
XFILLER_83_106 VDD VSS sg13g2_fill_1
Xi_chip_core_i_shift_window_line_buffer_L3__1713_ i_chip_core_i_shift_window_line_buffer_L3__1713_/Y
+ i_chip_core_i_shift_window_line_buffer_L3__1737_/A1 i_chip_core_i_shift_window_line_buffer_L3__2204_/Q
+ i_chip_core_i_shift_window_line_buffer_L3__1738_/A1 VDD VSS sg13g2_a21oi_1